tests/data/state_estimation/current-sensor/power-from-global-current-sensor/sym_output.json
{
  "version": "1.0",
  "type": "sym_output",
  "is_batch": false,
  "attributes": {},
  "data": {
    "node": [
      {
        "id": 1,
        "energized": 1,
        "u_pu": 1.0,
        "u": 10000.0,
        "u_angle": 0,
        "p": -152081.2411685313,
        "q": 51572.48267121874
      },
      {
        "id": 2,
        "energized": 1,
        "u_pu": 1.0032295891786502,
        "u": 10032.295891786502,
        "u_angle": 0.00504377034970919,
        "p": 152910.9020381655,
        "q": -82536.92633499844
      }
    ],
    "line": [
      {
        "id": 3,
        "energized": 1,
        "p_from": -152081.2411685313,
        "q_from": 51572.48267121874,
        "i_from": 9.27153796739141,
        "s_from": 160587.748238258,
        "p_to": 152910.9020381655,
        "q_to": -82536.92633499844,
        "i_to": 10.0,
        "s_to": 173764.46176060976
      }
    ],
    "source": [
      {
        "id": 4,
        "energized": 1,
        "p": -152081.2411685313,
        "q": 51572.48267121874,
        "i": 9.27153796739141,
        "s": 160587.748238258,
        "pf": -0.9470289161966085
      }
    ],
    "sym_load": [
      {
        "id": 5,
        "energized": 1,
        "p": -152910.9020381655,
        "q": 82536.92633499844,
        "i": 10.0,
        "s": 173764.46176060976,
        "pf": -0.8799895012412056
      }
    ],
    "sym_voltage_sensor": [
      {
        "id": 6,
        "energized": 1,
        "u_residual": 0,
        "u_angle_residual": 0
      }
    ],
    "sym_power_sensor": [
      {
        "id": 7,
        "energized": 1,
        "p_residual": 0.00023135404703111817,
        "q_residual": -0.00010111464443518514
      }
    ]
  }
}
